tests/data/power_flow/non-floating-ground-no-error/linear/wye-zigzag_n/asym_output.json
{
  "version": "1.0",
  "type": "asym_output",
  "is_batch": false,
  "attributes": {},
  "data": {
    "node": [
      {"id": 1, "energized": 1, "u_pu": [0.99999999999569467, 0.99999999998937661, 0.99999999998945599], "u": [5773.5026918714011, 5773.5026918349231, 5773.5026918353815], "u_angle": [7.4684215561467794e-14, -2.0943951023966769, 2.0943951023969634], "p": [997.28541385217147, 3324.5039371670309, 1597.2105474503701], "q": [1032.4515637474976, 1683.3379298537147, 3373.3251081579783]},
      {"id": 2, "energized": 1, "u_pu": [0.9931632416840297, 0.99725386863966292, 0.98983633736840571], "u": [57.340306493551587, 57.576478950950509, 57.148227583332222], "u_angle": [-0.52490200381063901, -2.6244018391800625, 1.5625558622847955], "p": [-986.37322463243561, -994.51527851693606, -3919.1038990995517], "q": [-986.37322463257851, -994.51527851699382, -3919.1038990995339]}
    ],
    "transformer": [
      {"id": 4, "energized": 1, "loading": 0.088941878458224752, "p_from": [997.28541385217147, 3324.5039371670309, 1597.2105474503701], "q_from": [1032.4515637474976, 1683.3379298537147, 3373.3251081579783], "i_from": [0.24862830258347662, 0.64542899720925884, 0.64646122432461905], "s_from": [1435.4561742411192, 3726.3860527759707, 3732.3456188053842], "p_to": [-986.37322463243561, -994.51527851693606, -3919.1038990995517], "q_to": [-986.37322463257851, -994.51527851699382, -3919.1038990995339], "i_to": [24.32743173414757, 24.427631221841658, 96.983758216717732], "s_to": [1394.9423918369748, 1406.4569948659478, 5542.4498864558518]}
    ],
    "source": [
      {"id": 3, "energized": 1, "p": [997.28541385217147, 3324.5039371670309, 1597.2105474503701], "q": [1032.4515637474976, 1683.3379298537145, 3373.3251081579779], "i": [0.24862830258347662, 0.64542899720925873, 0.64646122432461905], "s": [1435.4561742411192, 3726.3860527759703, 3732.3456188053838], "pf": [0.69475155824900403, 0.89215231328231348, 0.42793747165397589]}
    ],
    "asym_load": [
      {"id": 21, "energized": 1, "p": [986.37322463233033, 994.51527851677406, 3919.1038990996008], "q": [986.37322463233033, 994.51527851677406, 3919.1038990996008], "i": [24.327431734143207, 24.427631221836972, 96.983758216719181], "s": [1394.9423918367249, 1406.4569948656776, 5542.4498864559328], "pf": [0.70710678118654757, 0.70710678118654757, 0.70710678118654757]}
    ]
  }
}